/*--------------------------------*- C++ -*----------------------------------*\
  =========                 |
  \\      /  F ield         | OpenFOAM: The Open Source CFD Toolbox
   \\    /   O peration     | Website:  https://openfoam.org
    \\  /    A nd           | Version:  7
     \\/     M anipulation  |
\*---------------------------------------------------------------------------*/
FoamFile
{
    version     2.0;
    format      ascii;
    class       volScalarField;
    location    "0";
    object      nut;
}
// * * * * * * * * * * * * * * * * * * * * * * * * * * * * * * * * * * * * * //

dimensions      [0 2 -1 0 0 0 0];

internalField   uniform 0;

boundaryField
{
  

    filter
    {
        type            nutkWallFunction;
        value           uniform 0;
    }

    wallPatch
    {
        type            nutkWallFunction;
        value           uniform 0;
    }

/*    fluid_to_solid
    {
        type            nutkWallFunction;
        value           uniform 0;
    }
*/
    inletPatch
    {
        type            fixedValue;
        value           uniform 0;
    }

    outletPatch
    {
        type            zeroGradient;
        
    }
}


// ************************************************************************* //
