/*---------------------------------------------------------------------------*\
| =========                 |                                                 |
| \\      /  F ield         | OpenFOAM: The Open Source CFD Toolbox           |
|  \\    /   O peration     | Version:  1.4                                   |
|   \\  /    A nd           | Web:      http://www.openfoam.org               |
|    \\/     M anipulation  |                                                 |
\*---------------------------------------------------------------------------*/

FoamFile
{
    version         2.0;
    format          ascii;

    root            "";
    case            "";
    instance        "";
    local           "";

    class           dictionary;
    object          controlDict;
}

// * * * * * * * * * * * * * * * * * * * * * * * * * * * * * * * * * * * * * //

application simpleFoam;

startFrom       latestTime;

startTime       0;

stopAt          endTime;

endTime         3000; // 1 

deltaT          1; // just two work out parallel I changed from 100 to 20 

writeControl    timeStep;

writeInterval   100; // 1250

purgeWrite      0;

writeFormat     ascii;

writePrecision  6;

writeCompression uncompressed;

timeFormat      general;

timePrecision   6;

runTimeModifiable true;

functions
{
    porousforces
    {
        type forces;
        functionObjectLibs ("libforces.so");
        writeControl timeStep;
        writeInterval     20;

        // Patches to sample
        patches (solid_to_fluid);
        // Name of fields
        //pName p;
       // Uname U;
        // Density
        //rhoName rho;
//        nuName    nuInf;
	rho	rhoInf;
	p	p;
	U	U;

	rhoInf	10000;
//        nuInf 1e-06;
        // Dump to file
        log true;
        // Centre of rotation
        CofR (0 0 0);
        // Include porosity effects
        porosity   true;
	
	#include "fvOptions"

	
    }
/*
    volFieldValue1
    {
	// Mandatory entries (unmodifiable)
	type            volFieldValue;
	libs            ("libfieldFunctionObjects.so");
	enabled         true;
	fields
	(
	    U
	);
	operation       volIntegrate;
	surfaceFormat	vtk;
	// Mandatory entries (runtime modifiable)
        writeControl    timeStep;
        writeInterval   2;
	writeFields     true; 
	regionType      cellZone;
	name		cz_solid_1;
	
    }
*/

   volFieldValue_0
   {
        type            volFieldValue;
        libs ("libfieldFunctionObjects.so");
        enabled         true;
        fields
        (
            U
        );
        operation       volIntegrate;
        surfaceFormat   null;
        writeControl    timeStep;
        writeInterval   20;
        log             true;
        writeFields     true;
        regionType      cellZone;
        name            cz_solid_0;
   }
   massFlowAtFilter_0
   {
        type            surfaceFieldValue;
        functionObjectLibs ("libfieldFunctionObjects.so");
        enabled         true;
        surfaceFormat   null;
        writeControl    timeStep;
        writeInterval   20;
        log             true;
        writeFields     true;
        regionType      faceZone;
        name            fz_solid_0;
        operation       sum;
        fields
        (
            phi
        );
   }
   volFieldValue_1
   {
        type            volFieldValue;
        libs ("libfieldFunctionObjects.so");
        enabled         true;
        fields
        (
            U
        );
        operation       volIntegrate;
        surfaceFormat   null;
        writeControl    timeStep;
        writeInterval   20;
        log             true;
        writeFields     true;
        regionType      cellZone;
        name            cz_solid_1;
   }
   massFlowAtFilter_1
   {
        type            surfaceFieldValue;
        functionObjectLibs ("libfieldFunctionObjects.so");
        enabled         true;
        surfaceFormat   null;
        writeControl    timeStep;
        writeInterval   20;
        log             true;
        writeFields     true;
        regionType      faceZone;
        name            fz_solid_1;
        operation       sum;
        fields
        (
            phi
        );
   }
   volFieldValue_2
   {
        type            volFieldValue;
        libs ("libfieldFunctionObjects.so");
        enabled         true;
        fields
        (
            U
        );
        operation       volIntegrate;
        surfaceFormat   null;
        writeControl    timeStep;
        writeInterval   20;
        log             true;
        writeFields     true;
        regionType      cellZone;
        name            cz_solid_2;
   }
   massFlowAtFilter_2
   {
        type            surfaceFieldValue;
        functionObjectLibs ("libfieldFunctionObjects.so");
        enabled         true;
        surfaceFormat   null;
        writeControl    timeStep;
        writeInterval   20;
        log             true;
        writeFields     true;
        regionType      faceZone;
        name            fz_solid_2;
        operation       sum;
        fields
        (
            phi
        );
   }
   volFieldValue_3
   {
        type            volFieldValue;
        libs ("libfieldFunctionObjects.so");
        enabled         true;
        fields
        (
            U
        );
        operation       volIntegrate;
        surfaceFormat   null;
        writeControl    timeStep;
        writeInterval   20;
        log             true;
        writeFields     true;
        regionType      cellZone;
        name            cz_solid_3;
   }
   massFlowAtFilter_3
   {
        type            surfaceFieldValue;
        functionObjectLibs ("libfieldFunctionObjects.so");
        enabled         true;
        surfaceFormat   null;
        writeControl    timeStep;
        writeInterval   20;
        log             true;
        writeFields     true;
        regionType      faceZone;
        name            fz_solid_3;
        operation       sum;
        fields
        (
            phi
        );
   }
   volFieldValue_4
   {
        type            volFieldValue;
        libs ("libfieldFunctionObjects.so");
        enabled         true;
        fields
        (
            U
        );
        operation       volIntegrate;
        surfaceFormat   null;
        writeControl    timeStep;
        writeInterval   20;
        log             true;
        writeFields     true;
        regionType      cellZone;
        name            cz_solid_4;
   }
   massFlowAtFilter_4
   {
        type            surfaceFieldValue;
        functionObjectLibs ("libfieldFunctionObjects.so");
        enabled         true;
        surfaceFormat   null;
        writeControl    timeStep;
        writeInterval   20;
        log             true;
        writeFields     true;
        regionType      faceZone;
        name            fz_solid_4;
        operation       sum;
        fields
        (
            phi
        );
   }
   volFieldValue_5
   {
        type            volFieldValue;
        libs ("libfieldFunctionObjects.so");
        enabled         true;
        fields
        (
            U
        );
        operation       volIntegrate;
        surfaceFormat   null;
        writeControl    timeStep;
        writeInterval   20;
        log             true;
        writeFields     true;
        regionType      cellZone;
        name            cz_solid_5;
   }
   massFlowAtFilter_5
   {
        type            surfaceFieldValue;
        functionObjectLibs ("libfieldFunctionObjects.so");
        enabled         true;
        surfaceFormat   null;
        writeControl    timeStep;
        writeInterval   20;
        log             true;
        writeFields     true;
        regionType      faceZone;
        name            fz_solid_5;
        operation       sum;
        fields
        (
            phi
        );
   }
   volFieldValue_6
   {
        type            volFieldValue;
        libs ("libfieldFunctionObjects.so");
        enabled         true;
        fields
        (
            U
        );
        operation       volIntegrate;
        surfaceFormat   null;
        writeControl    timeStep;
        writeInterval   20;
        log             true;
        writeFields     true;
        regionType      cellZone;
        name            cz_solid_6;
   }
   massFlowAtFilter_6
   {
        type            surfaceFieldValue;
        functionObjectLibs ("libfieldFunctionObjects.so");
        enabled         true;
        surfaceFormat   null;
        writeControl    timeStep;
        writeInterval   20;
        log             true;
        writeFields     true;
        regionType      faceZone;
        name            fz_solid_6;
        operation       sum;
        fields
        (
            phi
        );
   }
   volFieldValue_7
   {
        type            volFieldValue;
        libs ("libfieldFunctionObjects.so");
        enabled         true;
        fields
        (
            U
        );
        operation       volIntegrate;
        surfaceFormat   null;
        writeControl    timeStep;
        writeInterval   20;
        log             true;
        writeFields     true;
        regionType      cellZone;
        name            cz_solid_7;
   }
   massFlowAtFilter_7
   {
        type            surfaceFieldValue;
        functionObjectLibs ("libfieldFunctionObjects.so");
        enabled         true;
        surfaceFormat   null;
        writeControl    timeStep;
        writeInterval   20;
        log             true;
        writeFields     true;
        regionType      faceZone;
        name            fz_solid_7;
        operation       sum;
        fields
        (
            phi
        );
   }
   volFieldValue_8
   {
        type            volFieldValue;
        libs ("libfieldFunctionObjects.so");
        enabled         true;
        fields
        (
            U
        );
        operation       volIntegrate;
        surfaceFormat   null;
        writeControl    timeStep;
        writeInterval   20;
        log             true;
        writeFields     true;
        regionType      cellZone;
        name            cz_solid_8;
   }
   massFlowAtFilter_8
   {
        type            surfaceFieldValue;
        functionObjectLibs ("libfieldFunctionObjects.so");
        enabled         true;
        surfaceFormat   null;
        writeControl    timeStep;
        writeInterval   20;
        log             true;
        writeFields     true;
        regionType      faceZone;
        name            fz_solid_8;
        operation       sum;
        fields
        (
            phi
        );
   }
   volFieldValue_9
   {
        type            volFieldValue;
        libs ("libfieldFunctionObjects.so");
        enabled         true;
        fields
        (
            U
        );
        operation       volIntegrate;
        surfaceFormat   null;
        writeControl    timeStep;
        writeInterval   20;
        log             true;
        writeFields     true;
        regionType      cellZone;
        name            cz_solid_9;
   }
   massFlowAtFilter_9
   {
        type            surfaceFieldValue;
        functionObjectLibs ("libfieldFunctionObjects.so");
        enabled         true;
        surfaceFormat   null;
        writeControl    timeStep;
        writeInterval   20;
        log             true;
        writeFields     true;
        regionType      faceZone;
        name            fz_solid_9;
        operation       sum;
        fields
        (
            phi
        );
   }
   volFieldValue_10
   {
        type            volFieldValue;
        libs ("libfieldFunctionObjects.so");
        enabled         true;
        fields
        (
            U
        );
        operation       volIntegrate;
        surfaceFormat   null;
        writeControl    timeStep;
        writeInterval   20;
        log             true;
        writeFields     true;
        regionType      cellZone;
        name            cz_solid_10;
   }
   massFlowAtFilter_10
   {
        type            surfaceFieldValue;
        functionObjectLibs ("libfieldFunctionObjects.so");
        enabled         true;
        surfaceFormat   null;
        writeControl    timeStep;
        writeInterval   20;
        log             true;
        writeFields     true;
        regionType      faceZone;
        name            fz_solid_10;
        operation       sum;
        fields
        (
            phi
        );
   }
   volFieldValue_11
   {
        type            volFieldValue;
        libs ("libfieldFunctionObjects.so");
        enabled         true;
        fields
        (
            U
        );
        operation       volIntegrate;
        surfaceFormat   null;
        writeControl    timeStep;
        writeInterval   20;
        log             true;
        writeFields     true;
        regionType      cellZone;
        name            cz_solid_11;
   }
   massFlowAtFilter_11
   {
        type            surfaceFieldValue;
        functionObjectLibs ("libfieldFunctionObjects.so");
        enabled         true;
        surfaceFormat   null;
        writeControl    timeStep;
        writeInterval   20;
        log             true;
        writeFields     true;
        regionType      faceZone;
        name            fz_solid_11;
        operation       sum;
        fields
        (
            phi
        );
   }
   volFieldValue_12
   {
        type            volFieldValue;
        libs ("libfieldFunctionObjects.so");
        enabled         true;
        fields
        (
            U
        );
        operation       volIntegrate;
        surfaceFormat   null;
        writeControl    timeStep;
        writeInterval   20;
        log             true;
        writeFields     true;
        regionType      cellZone;
        name            cz_solid_12;
   }
   massFlowAtFilter_12
   {
        type            surfaceFieldValue;
        functionObjectLibs ("libfieldFunctionObjects.so");
        enabled         true;
        surfaceFormat   null;
        writeControl    timeStep;
        writeInterval   20;
        log             true;
        writeFields     true;
        regionType      faceZone;
        name            fz_solid_12;
        operation       sum;
        fields
        (
            phi
        );
   }
   volFieldValue_13
   {
        type            volFieldValue;
        libs ("libfieldFunctionObjects.so");
        enabled         true;
        fields
        (
            U
        );
        operation       volIntegrate;
        surfaceFormat   null;
        writeControl    timeStep;
        writeInterval   20;
        log             true;
        writeFields     true;
        regionType      cellZone;
        name            cz_solid_13;
   }
   massFlowAtFilter_13
   {
        type            surfaceFieldValue;
        functionObjectLibs ("libfieldFunctionObjects.so");
        enabled         true;
        surfaceFormat   null;
        writeControl    timeStep;
        writeInterval   20;
        log             true;
        writeFields     true;
        regionType      faceZone;
        name            fz_solid_13;
        operation       sum;
        fields
        (
            phi
        );
   }
   volFieldValue_14
   {
        type            volFieldValue;
        libs ("libfieldFunctionObjects.so");
        enabled         true;
        fields
        (
            U
        );
        operation       volIntegrate;
        surfaceFormat   null;
        writeControl    timeStep;
        writeInterval   20;
        log             true;
        writeFields     true;
        regionType      cellZone;
        name            cz_solid_14;
   }
   massFlowAtFilter_14
   {
        type            surfaceFieldValue;
        functionObjectLibs ("libfieldFunctionObjects.so");
        enabled         true;
        surfaceFormat   null;
        writeControl    timeStep;
        writeInterval   20;
        log             true;
        writeFields     true;
        regionType      faceZone;
        name            fz_solid_14;
        operation       sum;
        fields
        (
            phi
        );
   }
   volFieldValue_15
   {
        type            volFieldValue;
        libs ("libfieldFunctionObjects.so");
        enabled         true;
        fields
        (
            U
        );
        operation       volIntegrate;
        surfaceFormat   null;
        writeControl    timeStep;
        writeInterval   20;
        log             true;
        writeFields     true;
        regionType      cellZone;
        name            cz_solid_15;
   }
   massFlowAtFilter_15
   {
        type            surfaceFieldValue;
        functionObjectLibs ("libfieldFunctionObjects.so");
        enabled         true;
        surfaceFormat   null;
        writeControl    timeStep;
        writeInterval   20;
        log             true;
        writeFields     true;
        regionType      faceZone;
        name            fz_solid_15;
        operation       sum;
        fields
        (
            phi
        );
   }
   volFieldValue_16
   {
        type            volFieldValue;
        libs ("libfieldFunctionObjects.so");
        enabled         true;
        fields
        (
            U
        );
        operation       volIntegrate;
        surfaceFormat   null;
        writeControl    timeStep;
        writeInterval   20;
        log             true;
        writeFields     true;
        regionType      cellZone;
        name            cz_solid_16;
   }
   massFlowAtFilter_16
   {
        type            surfaceFieldValue;
        functionObjectLibs ("libfieldFunctionObjects.so");
        enabled         true;
        surfaceFormat   null;
        writeControl    timeStep;
        writeInterval   20;
        log             true;
        writeFields     true;
        regionType      faceZone;
        name            fz_solid_16;
        operation       sum;
        fields
        (
            phi
        );
   }
   volFieldValue_17
   {
        type            volFieldValue;
        libs ("libfieldFunctionObjects.so");
        enabled         true;
        fields
        (
            U
        );
        operation       volIntegrate;
        surfaceFormat   null;
        writeControl    timeStep;
        writeInterval   20;
        log             true;
        writeFields     true;
        regionType      cellZone;
        name            cz_solid_17;
   }
   massFlowAtFilter_17
   {
        type            surfaceFieldValue;
        functionObjectLibs ("libfieldFunctionObjects.so");
        enabled         true;
        surfaceFormat   null;
        writeControl    timeStep;
        writeInterval   20;
        log             true;
        writeFields     true;
        regionType      faceZone;
        name            fz_solid_17;
        operation       sum;
        fields
        (
            phi
        );
   }
   volFieldValue_18
   {
        type            volFieldValue;
        libs ("libfieldFunctionObjects.so");
        enabled         true;
        fields
        (
            U
        );
        operation       volIntegrate;
        surfaceFormat   null;
        writeControl    timeStep;
        writeInterval   20;
        log             true;
        writeFields     true;
        regionType      cellZone;
        name            cz_solid_18;
   }
   massFlowAtFilter_18
   {
        type            surfaceFieldValue;
        functionObjectLibs ("libfieldFunctionObjects.so");
        enabled         true;
        surfaceFormat   null;
        writeControl    timeStep;
        writeInterval   20;
        log             true;
        writeFields     true;
        regionType      faceZone;
        name            fz_solid_18;
        operation       sum;
        fields
        (
            phi
        );
   }
   volFieldValue_19
   {
        type            volFieldValue;
        libs ("libfieldFunctionObjects.so");
        enabled         true;
        fields
        (
            U
        );
        operation       volIntegrate;
        surfaceFormat   null;
        writeControl    timeStep;
        writeInterval   20;
        log             true;
        writeFields     true;
        regionType      cellZone;
        name            cz_solid_19;
   }
   massFlowAtFilter_19
   {
        type            surfaceFieldValue;
        functionObjectLibs ("libfieldFunctionObjects.so");
        enabled         true;
        surfaceFormat   null;
        writeControl    timeStep;
        writeInterval   20;
        log             true;
        writeFields     true;
        regionType      faceZone;
        name            fz_solid_19;
        operation       sum;
        fields
        (
            phi
        );
   }
   volFieldValue_20
   {
        type            volFieldValue;
        libs ("libfieldFunctionObjects.so");
        enabled         true;
        fields
        (
            U
        );
        operation       volIntegrate;
        surfaceFormat   null;
        writeControl    timeStep;
        writeInterval   20;
        log             true;
        writeFields     true;
        regionType      cellZone;
        name            cz_solid_20;
   }
   massFlowAtFilter_20
   {
        type            surfaceFieldValue;
        functionObjectLibs ("libfieldFunctionObjects.so");
        enabled         true;
        surfaceFormat   null;
        writeControl    timeStep;
        writeInterval   20;
        log             true;
        writeFields     true;
        regionType      faceZone;
        name            fz_solid_20;
        operation       sum;
        fields
        (
            phi
        );
   }
   volFieldValue_21
   {
        type            volFieldValue;
        libs ("libfieldFunctionObjects.so");
        enabled         true;
        fields
        (
            U
        );
        operation       volIntegrate;
        surfaceFormat   null;
        writeControl    timeStep;
        writeInterval   20;
        log             true;
        writeFields     true;
        regionType      cellZone;
        name            cz_solid_21;
   }
   massFlowAtFilter_21
   {
        type            surfaceFieldValue;
        functionObjectLibs ("libfieldFunctionObjects.so");
        enabled         true;
        surfaceFormat   null;
        writeControl    timeStep;
        writeInterval   20;
        log             true;
        writeFields     true;
        regionType      faceZone;
        name            fz_solid_21;
        operation       sum;
        fields
        (
            phi
        );
   }
   volFieldValue_22
   {
        type            volFieldValue;
        libs ("libfieldFunctionObjects.so");
        enabled         true;
        fields
        (
            U
        );
        operation       volIntegrate;
        surfaceFormat   null;
        writeControl    timeStep;
        writeInterval   20;
        log             true;
        writeFields     true;
        regionType      cellZone;
        name            cz_solid_22;
   }
   massFlowAtFilter_22
   {
        type            surfaceFieldValue;
        functionObjectLibs ("libfieldFunctionObjects.so");
        enabled         true;
        surfaceFormat   null;
        writeControl    timeStep;
        writeInterval   20;
        log             true;
        writeFields     true;
        regionType      faceZone;
        name            fz_solid_22;
        operation       sum;
        fields
        (
            phi
        );
   }
   volFieldValue_23
   {
        type            volFieldValue;
        libs ("libfieldFunctionObjects.so");
        enabled         true;
        fields
        (
            U
        );
        operation       volIntegrate;
        surfaceFormat   null;
        writeControl    timeStep;
        writeInterval   20;
        log             true;
        writeFields     true;
        regionType      cellZone;
        name            cz_solid_23;
   }
   massFlowAtFilter_23
   {
        type            surfaceFieldValue;
        functionObjectLibs ("libfieldFunctionObjects.so");
        enabled         true;
        surfaceFormat   null;
        writeControl    timeStep;
        writeInterval   20;
        log             true;
        writeFields     true;
        regionType      faceZone;
        name            fz_solid_23;
        operation       sum;
        fields
        (
            phi
        );
   }
   volFieldValue_24
   {
        type            volFieldValue;
        libs ("libfieldFunctionObjects.so");
        enabled         true;
        fields
        (
            U
        );
        operation       volIntegrate;
        surfaceFormat   null;
        writeControl    timeStep;
        writeInterval   20;
        log             true;
        writeFields     true;
        regionType      cellZone;
        name            cz_solid_24;
   }
   massFlowAtFilter_24
   {
        type            surfaceFieldValue;
        functionObjectLibs ("libfieldFunctionObjects.so");
        enabled         true;
        surfaceFormat   null;
        writeControl    timeStep;
        writeInterval   20;
        log             true;
        writeFields     true;
        regionType      faceZone;
        name            fz_solid_24;
        operation       sum;
        fields
        (
            phi
        );
   }
   volFieldValue_25
   {
        type            volFieldValue;
        libs ("libfieldFunctionObjects.so");
        enabled         true;
        fields
        (
            U
        );
        operation       volIntegrate;
        surfaceFormat   null;
        writeControl    timeStep;
        writeInterval   20;
        log             true;
        writeFields     true;
        regionType      cellZone;
        name            cz_solid_25;
   }
   massFlowAtFilter_25
   {
        type            surfaceFieldValue;
        functionObjectLibs ("libfieldFunctionObjects.so");
        enabled         true;
        surfaceFormat   null;
        writeControl    timeStep;
        writeInterval   20;
        log             true;
        writeFields     true;
        regionType      faceZone;
        name            fz_solid_25;
        operation       sum;
        fields
        (
            phi
        );
   }
   volFieldValue_26
   {
        type            volFieldValue;
        libs ("libfieldFunctionObjects.so");
        enabled         true;
        fields
        (
            U
        );
        operation       volIntegrate;
        surfaceFormat   null;
        writeControl    timeStep;
        writeInterval   20;
        log             true;
        writeFields     true;
        regionType      cellZone;
        name            cz_solid_26;
   }
   massFlowAtFilter_26
   {
        type            surfaceFieldValue;
        functionObjectLibs ("libfieldFunctionObjects.so");
        enabled         true;
        surfaceFormat   null;
        writeControl    timeStep;
        writeInterval   20;
        log             true;
        writeFields     true;
        regionType      faceZone;
        name            fz_solid_26;
        operation       sum;
        fields
        (
            phi
        );
   }
   volFieldValue_27
   {
        type            volFieldValue;
        libs ("libfieldFunctionObjects.so");
        enabled         true;
        fields
        (
            U
        );
        operation       volIntegrate;
        surfaceFormat   null;
        writeControl    timeStep;
        writeInterval   20;
        log             true;
        writeFields     true;
        regionType      cellZone;
        name            cz_solid_27;
   }
   massFlowAtFilter_27
   {
        type            surfaceFieldValue;
        functionObjectLibs ("libfieldFunctionObjects.so");
        enabled         true;
        surfaceFormat   null;
        writeControl    timeStep;
        writeInterval   20;
        log             true;
        writeFields     true;
        regionType      faceZone;
        name            fz_solid_27;
        operation       sum;
        fields
        (
            phi
        );
   }
   volFieldValue_28
   {
        type            volFieldValue;
        libs ("libfieldFunctionObjects.so");
        enabled         true;
        fields
        (
            U
        );
        operation       volIntegrate;
        surfaceFormat   null;
        writeControl    timeStep;
        writeInterval   20;
        log             true;
        writeFields     true;
        regionType      cellZone;
        name            cz_solid_28;
   }
   massFlowAtFilter_28
   {
        type            surfaceFieldValue;
        functionObjectLibs ("libfieldFunctionObjects.so");
        enabled         true;
        surfaceFormat   null;
        writeControl    timeStep;
        writeInterval   20;
        log             true;
        writeFields     true;
        regionType      faceZone;
        name            fz_solid_28;
        operation       sum;
        fields
        (
            phi
        );
   }
   volFieldValue_29
   {
        type            volFieldValue;
        libs ("libfieldFunctionObjects.so");
        enabled         true;
        fields
        (
            U
        );
        operation       volIntegrate;
        surfaceFormat   null;
        writeControl    timeStep;
        writeInterval   20;
        log             true;
        writeFields     true;
        regionType      cellZone;
        name            cz_solid_29;
   }
   massFlowAtFilter_29
   {
        type            surfaceFieldValue;
        functionObjectLibs ("libfieldFunctionObjects.so");
        enabled         true;
        surfaceFormat   null;
        writeControl    timeStep;
        writeInterval   20;
        log             true;
        writeFields     true;
        regionType      faceZone;
        name            fz_solid_29;
        operation       sum;
        fields
        (