/*--------------------------------*- C++ -*----------------------------------*\
  =========                 |
  \\      /  F ield         | OpenFOAM: The Open Source CFD Toolbox
   \\    /   O peration     | Website:  https://openfoam.org
    \\  /    A nd           | Version:  7
     \\/     M anipulation  |
\*---------------------------------------------------------------------------*/
FoamFile
{
    version     2.0;
    format      ascii;
    class       dictionary;
    object      topoSetDict;
}

// * * * * * * * * * * * * * * * * * * * * * * * * * * * * * * * * * * * * * //

actions
(
    
// First entry to select the entire chamber minus the filter
    {
        name    entire_Chamber;
        type    faceSet;
        action  new;
        source  patchToFace;
        sourceInfo
	{
	 name chamber;
        }
    }


// Note: everything but the inlet
    {
        name    body_without_inlet;
        type    faceSet;
        action  new;
        source  boxToFace;
        sourceInfo
        {
	box (-1 -1 -1) (2 2.5 1.399);
        }
    }
    {
// Note: everything but the Outlet
        name    body_without_outlet;
        type    faceSet;
        action  new;
        source  boxToFace;
        sourceInfo
        {
        box (-1 -1 -1) (2 1.592 2);
        }
    }
    
//Inlet
// Select the entire VFS to make inlet
    {
	name    inletPatch;
        type    faceSet;
        action  new;
        source  faceToFace;
        sourceInfo
        {
        set entire_Chamber;
        }

    }
// Note: subtraction for inlet Patch
    {
	name    inletPatch;
        type    faceSet;
        action  delete;
        source  faceToFace;
        sourceInfo
        {
        set body_without_inlet;
        }

    }
// Top Outlet
// Select the entire VFS to make Top Outlet
    {
	name    outletPatch;
        type    faceSet;
        action  new;
        source  faceToFace;
        sourceInfo
        {
        set entire_Chamber;
        }

    }
// Note: subtraction for Outlet Patch
    {
	name    outletPatch;
        type    faceSet;
        action  delete;
        source  faceToFace;
        sourceInfo
        {
        set body_without_outlet;
        }

    }

//Wall Patch
// Select the entire VFS to make Bottom Outlet
    {
	name    wallPatch;
        type    faceSet;
        action  new;
        source  faceToFace;
        sourceInfo
        {
        set entire_Chamber;
        }

    }
//Subtract Inlet
    {
	name    wallPatch;
        type    faceSet;
        action  delete;
        source  faceToFace;
        sourceInfo
        {
        set inletPatch;
        }

    }
//Subtract Top Outlet
    {
	name    wallPatch;
        type    faceSet;
        action  delete;
        source  faceToFace;
        sourceInfo
        {
        set outletPatch;
        }

    }
//Subtract Filter
    //{
//	name    wallPatch;
 //       type    faceSet;
  //      action  delete;
   //     source  faceToFace;
    //    sourceInfo
     //   {
      //  set entire_Filter;
       // }

    //}
);

// ************************************************************************* //
