/*--------------------------------*- C++ -*----------------------------------*\
  =========                 |
  \\      /  F ield         | OpenFOAM: The Open Source CFD Toolbox
   \\    /   O peration     | Website:  https://openfoam.org
    \\  /    A nd           | Version:  7
     \\/     M anipulation  |
\*---------------------------------------------------------------------------*/
FoamFile
{
    version     2.0;
    format      ascii;
    class       volScalarField;
    location    "0";
    object      k;
}
// * * * * * * * * * * * * * * * * * * * * * * * * * * * * * * * * * * * * * //

dimensions      [0 2 -2 0 0 0 0];

internalField   uniform 5.27344;

boundaryField
{
    
    wallPatch
    {
        type            kqRWallFunction;
        value           uniform 5.27344;
    }

    filter
    {
        type            kqRWallFunction;
        value           uniform 5.27344;
    }

/*
    fluid_to_solid
    {
        type            kqRWallFunction;
        value           uniform 1;
    }
*/
/*
    inletPatch
    {
        type            turbulentIntensityKineticEnergyInlet;
        intensity       0.02;
        value           uniform 0.16667;
    }
*/
    inletPatch
    {
	type 		fixedValue;
	value		uniform 5.27344;
    }

/*
    outletPatch
    {
        type            inletOutlet;
        inletValue      uniform 0.16667;
        value           uniform 0.16667;
    }
*/
    outletPatch
    {
        type            zeroGradient;
    }
}
// ************************************************************************* //
