/*--------------------------------*- C++ -*----------------------------------*\
  =========                 |
  \\      /  F ield         | OpenFOAM: The Open Source CFD Toolbox
   \\    /   O peration     | Website:  https://openfoam.org
    \\  /    A nd           | Version:  7
     \\/     M anipulation  |
\*---------------------------------------------------------------------------*/
FoamFile
{
    version     2.0;
    format      ascii;
    class       volScalarField;
    object      p;
}
// * * * * * * * * * * * * * * * * * * * * * * * * * * * * * * * * * * * * * //

dimensions      [0 2 -2 0 0 0 0];

internalField   uniform 0;

boundaryField
{
    
    wallPatch
    {
        type            zeroGradient;
    }
/*    fluid_to_solid
    {
        type            zeroGradient;
    }
*/
    filter
    {
        type            zeroGradient;
    }

    inletPatch
    {
        type 		zeroGradient;
    }
    outletPatch
    {
        type            fixedValue;
	value		uniform 0;
    }
}

// ************************************************************************* //
