/*---------------------------------------------------------------------------*\
| =========                 |                                                 |
| \\      /  F ield         | OpenFOAM: The Open Source CFD Toolbox           |
|  \\    /   O peration     | Version:  1.4                                   |
|   \\  /    A nd           | Web:      http://www.openfoam.org               |
|    \\/     M anipulation  |                                                 |
\*---------------------------------------------------------------------------*/

FoamFile
{
    version         2.0;
    format          ascii;

    root            "";
    case            "";
    instance        "";
    local           "";

    class           dictionary;
    object          blockMeshDict;
}

// * * * * * * * * * * * * * * * * * * * * * * * * * * * * * * * * * * * * * //


convertToMeters 1.0;

vertices        
(
    (-1.5 -0.5 -0.5)
    (2 -0.5 -0.5)
    (2 2 -0.5)
    (-1.5 2 -0.5)
    (-1.5 -0.5 2)
    (2 -0.5 2)
    (2 2 2)
    (-1.5 2 2)
);

blocks          
(
    hex (0 1 2 3 4 5 6 7) (42 42 42) simpleGrading (1 1 1)
);

edges           
(
);

patches         
(
/*
    wall movingWall 
    (
        (6 2 3 7)
    )
    wall fixedWalls 
    (
        (0 4 7 3)
        (1 2 5 6)
        (4 0 1 5)
    )
    empty frontAndBack 
    (
        (0 3 2 1)
        (4 5 6 7)
    )
*/
);

mergePatchPairs 
(
);


// ************************************************************************* //
