/*--------------------------------*- C++ -*----------------------------------*\
  =========                 |
  \\      /  F ield         | OpenFOAM: The Open Source CFD Toolbox
   \\    /   O peration     | Website:  https://openfoam.org
    \\  /    A nd           | Version:  7
     \\/     M anipulation  |
\*---------------------------------------------------------------------------*/
FoamFile
{
    version     2.0;
    format      ascii;
    class       dictionary;
    location    "constant";
    object      fvOptions;
}
// * * * * * * * * * * * * * * * * * * * * * * * * * * * * * * * * * * * * * //
/*
source0
{
    type	explicitPorositySource;
    explicitPorositySourceCoeffs
    {
        type            DarcyForchheimer;
	selectionMode   cellZone;
//    	cellZone        cz_solid_*;
    	cellZone        cz_solid_0;
        DarcyForchheimerCoeffs
        {
            d   d [0 -2 0 0 0 0 0] (3e12 0 3e12);
            f   f [0 -1 0 0 0 0 0] (4e5 0 4e5);
            coordinateSystem
            {
                type    cartesian;
                origin  (0 0 0);
                coordinateRotation
                {
                    type    axesRotation;
                    e1  (1 0 0);
                    e2  (0 1 0);
                }
            }
        }
    }

}
*/
source0 
{ 
    type	explicitPorositySource;
    explicitPorositySourceCoeffs
    {
	type            DarcyForchheimer;
	selectionMode   cellZone;
	cellZone        cz_solid_0;
	DarcyForchheimerCoeffs
	{
	    d   d [0 -2 0 0 0 0 0] (3e12 0 3e12);
	    f   f [0 -1 0 0 0 0 0] (4e5 0 4e5);
            coordinateSystem
	    {
                type    cartesian;
                origin  (0 0 0);
                coordinateRotation
                {
                    type    axesRotation;
                    e1  (1 0 0);
                    e2  (0 1 0);
                }
            }
        }
    }
}

source1 
{ 
    type	explicitPorositySource;
    explicitPorositySourceCoeffs
    {
	type            DarcyForchheimer;
	selectionMode   cellZone;
	cellZone        cz_solid_1;
	DarcyForchheimerCoeffs
	{
	    d   d [0 -2 0 0 0 0 0] (3e12 0 3e12);
	    f   f [0 -1 0 0 0 0 0] (4e5 0 4e5);
            coordinateSystem
	    {
                type    cartesian;
                origin  (0 0 0);
                coordinateRotation
                {
                    type    axesRotation;
                    e1  (1 0 0);
                    e2  (0 1 0);
                }
            }
        }
    }
}

source2 
{ 
    type	explicitPorositySource;
    explicitPorositySourceCoeffs
    {
	type            DarcyForchheimer;
	selectionMode   cellZone;
	cellZone        cz_solid_2;
	DarcyForchheimerCoeffs
	{
	    d   d [0 -2 0 0 0 0 0] (3e12 0 3e12);
	    f   f [0 -1 0 0 0 0 0] (4e5 0 4e5);
            coordinateSystem
	    {
                type    cartesian;
                origin  (0 0 0);
                coordinateRotation
                {
                    type    axesRotation;
                    e1  (1 0 0);
                    e2  (0 1 0);
                }
            }
        }
    }
}

source3 
{ 
    type	explicitPorositySource;
    explicitPorositySourceCoeffs
    {
	type            DarcyForchheimer;
	selectionMode   cellZone;
	cellZone        cz_solid_3;
	DarcyForchheimerCoeffs
	{
	    d   d [0 -2 0 0 0 0 0] (3e12 0 3e12);
	    f   f [0 -1 0 0 0 0 0] (4e5 0 4e5);
            coordinateSystem
	    {
                type    cartesian;
                origin  (0 0 0);
                coordinateRotation
                {
                    type    axesRotation;
                    e1  (1 0 0);
                    e2  (0 1 0);
                }
            }
        }
    }
}

source4 
{ 
    type	explicitPorositySource;
    explicitPorositySourceCoeffs
    {
	type            DarcyForchheimer;
	selectionMode   cellZone;
	cellZone        cz_solid_4;
	DarcyForchheimerCoeffs
	{
	    d   d [0 -2 0 0 0 0 0] (3e12 0 3e12);
	    f   f [0 -1 0 0 0 0 0] (4e5 0 4e5);
            coordinateSystem
	    {
                type    cartesian;
                origin  (0 0 0);
                coordinateRotation
                {
                    type    axesRotation;
                    e1  (1 0 0);
                    e2  (0 1 0);
                }
            }
        }
    }
}

source5 
{ 
    type	explicitPorositySource;
    explicitPorositySourceCoeffs
    {
	type            DarcyForchheimer;
	selectionMode   cellZone;
	cellZone        cz_solid_5;
	DarcyForchheimerCoeffs
	{
	    d   d [0 -2 0 0 0 0 0] (3e12 0 3e12);
	    f   f [0 -1 0 0 0 0 0] (4e5 0 4e5);
            coordinateSystem
	    {
                type    cartesian;
                origin  (0 0 0);
                coordinateRotation
                {
                    type    axesRotation;
                    e1  (1 0 0);
                    e2  (0 1 0);
                }
            }
        }
    }
}

source6 
{ 
    type	explicitPorositySource;
    explicitPorositySourceCoeffs
    {
	type            DarcyForchheimer;
	selectionMode   cellZone;
	cellZone        cz_solid_6;
	DarcyForchheimerCoeffs
	{
	    d   d [0 -2 0 0 0 0 0] (3e12 0 3e12);
	    f   f [0 -1 0 0 0 0 0] (4e5 0 4e5);
            coordinateSystem
	    {
                type    cartesian;
                origin  (0 0 0);
                coordinateRotation
                {
                    type    axesRotation;
                    e1  (1 0 0);
                    e2  (0 1 0);
                }
            }
        }
    }
}

source7 
{ 
    type	explicitPorositySource;
    explicitPorositySourceCoeffs
    {
	type            DarcyForchheimer;
	selectionMode   cellZone;
	cellZone        cz_solid_7;
	DarcyForchheimerCoeffs
	{
	    d   d [0 -2 0 0 0 0 0] (3e12 0 3e12);
	    f   f [0 -1 0 0 0 0 0] (4e5 0 4e5);
            coordinateSystem
	    {
                type    cartesian;
                origin  (0 0 0);
                coordinateRotation
                {
                    type    axesRotation;
                    e1  (1 0 0);
                    e2  (0 1 0);
                }
            }
        }
    }
}

source8 
{ 
    type	explicitPorositySource;
    explicitPorositySourceCoeffs
    {
	type            DarcyForchheimer;
	selectionMode   cellZone;
	cellZone        cz_solid_8;
	DarcyForchheimerCoeffs
	{
	    d   d [0 -2 0 0 0 0 0] (3e12 0 3e12);
	    f   f [0 -1 0 0 0 0 0] (4e5 0 4e5);
            coordinateSystem
	    {
                type    cartesian;
                origin  (0 0 0);
                coordinateRotation
                {
                    type    axesRotation;
                    e1  (1 0 0);
                    e2  (0 1 0);
                }
            }
        }
    }
}

source9 
{ 
    type	explicitPorositySource;
    explicitPorositySourceCoeffs
    {
	type            DarcyForchheimer;
	selectionMode   cellZone;
	cellZone        cz_solid_9;
	DarcyForchheimerCoeffs
	{
	    d   d [0 -2 0 0 0 0 0] (3e12 0 3e12);
	    f   f [0 -1 0 0 0 0 0] (4e5 0 4e5);
            coordinateSystem
	    {
                type    cartesian;
                origin  (0 0 0);
                coordinateRotation
                {
                    type    axesRotation;
                    e1  (1 0 0);
                    e2  (0 1 0);
                }
            }
        }
    }
}

source10 
{ 
    type	explicitPorositySource;
    explicitPorositySourceCoeffs
    {
	type            DarcyForchheimer;
	selectionMode   cellZone;
	cellZone        cz_solid_10;
	DarcyForchheimerCoeffs
	{
	    d   d [0 -2 0 0 0 0 0] (3e12 0 3e12);
	    f   f [0 -1 0 0 0 0 0] (4e5 0 4e5);
            coordinateSystem
	    {
                type    cartesian;
                origin  (0 0 0);
                coordinateRotation
                {
                    type    axesRotation;
                    e1  (1 0 0);
                    e2  (0 1 0);
                }
            }
        }
    }
}

source11 
{ 
    type	explicitPorositySource;
    explicitPorositySourceCoeffs
    {
	type            DarcyForchheimer;
	selectionMode   cellZone;
	cellZone        cz_solid_11;
	DarcyForchheimerCoeffs
	{
	    d   d [0 -2 0 0 0 0 0] (3e12 0 3e12);
	    f   f [0 -1 0 0 0 0 0] (4e5 0 4e5);
            coordinateSystem
	    {
                type    cartesian;
                origin  (0 0 0);
                coordinateRotation
                {
                    type    axesRotation;
                    e1  (1 0 0);
                    e2  (0 1 0);
                }
            }
        }
    }
}

source12 
{ 
    type	explicitPorositySource;
    explicitPorositySourceCoeffs
    {
	type            DarcyForchheimer;
	selectionMode   cellZone;
	cellZone        cz_solid_12;
	DarcyForchheimerCoeffs
	{
	    d   d [0 -2 0 0 0 0 0] (3e12 0 3e12);
	    f   f [0 -1 0 0 0 0 0] (4e5 0 4e5);
            coordinateSystem
	    {
                type    cartesian;
                origin  (0 0 0);
                coordinateRotation
                {
                    type    axesRotation;
                    e1  (1 0 0);
                    e2  (0 1 0);
                }
            }
        }
    }
}

source13 
{ 
    type	explicitPorositySource;
    explicitPorositySourceCoeffs
    {
	type            DarcyForchheimer;
	selectionMode   cellZone;
	cellZone        cz_solid_13;
	DarcyForchheimerCoeffs
	{
	    d   d [0 -2 0 0 0 0 0] (3e12 0 3e12);
	    f   f [0 -1 0 0 0 0 0] (4e5 0 4e5);
            coordinateSystem
	    {
                type    cartesian;
                origin  (0 0 0);
                coordinateRotation
                {
                    type    axesRotation;
                    e1  (1 0 0);
                    e2  (0 1 0);
                }
            }
        }
    }
}

source14 
{ 
    type	explicitPorositySource;
    explicitPorositySourceCoeffs
    {
	type            DarcyForchheimer;
	selectionMode   cellZone;
	cellZone        cz_solid_14;
	DarcyForchheimerCoeffs
	{
	    d   d [0 -2 0 0 0 0 0] (3e12 0 3e12);
	    f   f [0 -1 0 0 0 0 0] (4e5 0 4e5);
            coordinateSystem
	    {
                type    cartesian;
                origin  (0 0 0);
                coordinateRotation
                {
                    type    axesRotation;
                    e1  (1 0 0);
                    e2  (0 1 0);
                }
            }
        }
    }
}

source15 
{ 
    type	explicitPorositySource;
    explicitPorositySourceCoeffs
    {
	type            DarcyForchheimer;
	selectionMode   cellZone;
	cellZone        cz_solid_15;
	DarcyForchheimerCoeffs
	{
	    d   d [0 -2 0 0 0 0 0] (3e12 0 3e12);
	    f   f [0 -1 0 0 0 0 0] (4e5 0 4e5);
            coordinateSystem
	    {
                type    cartesian;
                origin  (0 0 0);
                coordinateRotation
                {
                    type    axesRotation;
                    e1  (1 0 0);
                    e2  (0 1 0);
                }
            }
        }
    }
}

source16 
{ 
    type	explicitPorositySource;
    explicitPorositySourceCoeffs
    {
	type            DarcyForchheimer;
	selectionMode   cellZone;
	cellZone        cz_solid_16;
	DarcyForchheimerCoeffs
	{
	    d   d [0 -2 0 0 0 0 0] (3e12 0 3e12);
	    f   f [0 -1 0 0 0 0 0] (4e5 0 4e5);
            coordinateSystem
	    {
                type    cartesian;
                origin  (0 0 0);
                coordinateRotation
                {
                    type    axesRotation;
                    e1  (1 0 0);
                    e2  (0 1 0);
                }
            }
        }
    }
}

source17 
{ 
    type	explicitPorositySource;
    explicitPorositySourceCoeffs
    {
	type            DarcyForchheimer;
	selectionMode   cellZone;
	cellZone        cz_solid_17;
	DarcyForchheimerCoeffs
	{
	    d   d [0 -2 0 0 0 0 0] (3e12 0 3e12);
	    f   f [0 -1 0 0 0 0 0] (4e5 0 4e5);
            coordinateSystem
	    {
                type    cartesian;
                origin  (0 0 0);
                coordinateRotation
                {
                    type    axesRotation;
                    e1  (1 0 0);
                    e2  (0 1 0);
                }
            }
        }
    }
}

source18 
{ 
    type	explicitPorositySource;
    explicitPorositySourceCoeffs
    {
	type            DarcyForchheimer;
	selectionMode   cellZone;
	cellZone        cz_solid_18;
	DarcyForchheimerCoeffs
	{
	    d   d [0 -2 0 0 0 0 0] (3e12 0 3e12);
	    f   f [0 -1 0 0 0 0 0] (4e5 0 4e5);
            coordinateSystem
	    {
                type    cartesian;
                origin  (0 0 0);
                coordinateRotation
                {
                    type    axesRotation;
                    e1  (1 0 0);
                    e2  (0 1 0);
                }
            }
        }
    }
}

source19 
{ 
    type	explicitPorositySource;
    explicitPorositySourceCoeffs
    {
	type            DarcyForchheimer;
	selectionMode   cellZone;
	cellZone        cz_solid_19;
	DarcyForchheimerCoeffs
	{
	    d   d [0 -2 0 0 0 0 0] (3e12 0 3e12);
	    f   f [0 -1 0 0 0 0 0] (4e5 0 4e5);
            coordinateSystem
	    {
                type    cartesian;
                origin  (0 0 0);
                coordinateRotation
                {
                    type    axesRotation;
                    e1  (1 0 0);
                    e2  (0 1 0);
                }
            }
        }
    }
}

source20 
{ 
    type	explicitPorositySource;
    explicitPorositySourceCoeffs
    {
	type            DarcyForchheimer;
	selectionMode   cellZone;
	cellZone        cz_solid_20;
	DarcyForchheimerCoeffs
	{
	    d   d [0 -2 0 0 0 0 0] (3e12 0 3e12);
	    f   f [0 -1 0 0 0 0 0] (4e5 0 4e5);
            coordinateSystem
	    {
                type    cartesian;
                origin  (0 0 0);
                coordinateRotation
                {
                    type    axesRotation;
                    e1  (1 0 0);
                    e2  (0 1 0);
                }
            }
        }
    }
}

source21 
{ 
    type	explicitPorositySource;
    explicitPorositySourceCoeffs
    {
	type            DarcyForchheimer;
	selectionMode   cellZone;
	cellZone        cz_solid_21;
	DarcyForchheimerCoeffs
	{
	    d   d [0 -2 0 0 0 0 0] (3e12 0 3e12);
	    f   f [0 -1 0 0 0 0 0] (4e5 0 4e5);
            coordinateSystem
	    {
                type    cartesian;
                origin  (0 0 0);
                coordinateRotation
                {
                    type    axesRotation;
                    e1  (1 0 0);
                    e2  (0 1 0);
                }
            }
        }
    }
}

source22 
{ 
    type	explicitPorositySource;
    explicitPorositySourceCoeffs
    {
	type            DarcyForchheimer;
	selectionMode   cellZone;
	cellZone        cz_solid_22;
	DarcyForchheimerCoeffs
	{
	    d   d [0 -2 0 0 0 0 0] (3e12 0 3e12);
	    f   f [0 -1 0 0 0 0 0] (4e5 0 4e5);
            coordinateSystem
	    {
                type    cartesian;
                origin  (0 0 0);
                coordinateRotation
                {
                    type    axesRotation;
                    e1  (1 0 0);
                    e2  (0 1 0);
                }
            }
        }
    }
}

source23 
{ 
    type	explicitPorositySource;
    explicitPorositySourceCoeffs
    {
	type            DarcyForchheimer;
	selectionMode   cellZone;
	cellZone        cz_solid_23;
	DarcyForchheimerCoeffs
	{
	    d   d [0 -2 0 0 0 0 0] (3e12 0 3e12);
	    f   f [0 -1 0 0 0 0 0] (4e5 0 4e5);
            coordinateSystem
	    {
                type    cartesian;
                origin  (0 0 0);
                coordinateRotation
                {
                    type    axesRotation;
                    e1  (1 0 0);
                    e2  (0 1 0);
                }
            }
        }
    }
}

source24 
{ 
    type	explicitPorositySource;
    explicitPorositySourceCoeffs
    {
	type            DarcyForchheimer;
	selectionMode   cellZone;
	cellZone        cz_solid_24;
	DarcyForchheimerCoeffs
	{
	    d   d [0 -2 0 0 0 0 0] (3e12 0 3e12);
	    f   f [0 -1 0 0 0 0 0] (4e5 0 4e5);
            coordinateSystem
	    {
                type    cartesian;
                origin  (0 0 0);
                coordinateRotation
                {
                    type    axesRotation;
                    e1  (1 0 0);
                    e2  (0 1 0);
                }
            }
        }
    }
}

source25 
{ 
    type	explicitPorositySource;
    explicitPorositySourceCoeffs
    {
	type            DarcyForchheimer;
	selectionMode   cellZone;
	cellZone        cz_solid_25;
	DarcyForchheimerCoeffs
	{
	    d   d [0 -2 0 0 0 0 0] (3e12 0 3e12);
	    f   f [0 -1 0 0 0 0 0] (4e5 0 4e5);
            coordinateSystem
	    {
                type    cartesian;
                origin  (0 0 0);
                coordinateRotation
                {
                    type    axesRotation;
                    e1  (1 0 0);
                    e2  (0 1 0);
                }
            }
        }
    }
}

source26 
{ 
    type	explicitPorositySource;
    explicitPorositySourceCoeffs
    {
	type            DarcyForchheimer;
	selectionMode   cellZone;
	cellZone        cz_solid_26;
	DarcyForchheimerCoeffs
	{
	    d   d [0 -2 0 0 0 0 0] (3e12 0 3e12);
	    f   f [0 -1 0 0 0 0 0] (4e5 0 4e5);
            coordinateSystem
	    {
                type    cartesian;
                origin  (0 0 0);
                coordinateRotation
                {
                    type    axesRotation;
                    e1  (1 0 0);
                    e2  (0 1 0);
                }
            }
        }
    }
}

source27 
{ 
    type	explicitPorositySource;
    explicitPorositySourceCoeffs
    {
	type            DarcyForchheimer;
	selectionMode   cellZone;
	cellZone        cz_solid_27;
	DarcyForchheimerCoeffs
	{
	    d   d [0 -2 0 0 0 0 0] (3e12 0 3e12);
	    f   f [0 -1 0 0 0 0 0] (4e5 0 4e5);
            coordinateSystem
	    {
                type    cartesian;
                origin  (0 0 0);
                coordinateRotation
                {
                    type    axesRotation;
                    e1  (1 0 0);
                    e2  (0 1 0);
                }
            }
        }
    }
}

source28 
{ 
    type	explicitPorositySource;
    explicitPorositySourceCoeffs
    {
	type            DarcyForchheimer;
	selectionMode   cellZone;
	cellZone        cz_solid_28;
	DarcyForchheimerCoeffs
	{
	    d   d [0 -2 0 0 0 0 0] (3e12 0 3e12);
	    f   f [0 -1 0 0 0 0 0] (4e5 0 4e5);
            coordinateSystem
	    {
                type    cartesian;
                origin  (0 0 0);
                coordinateRotation
                {
                    type    axesRotation;
                    e1  (1 0 0);
                    e2  (0 1 0);
                }
            }
        }
    }
}

source29 
{ 
    type	explicitPorositySource;
    explicitPorositySourceCoeffs
    {
	type            DarcyForchheimer;
	selectionMode   cellZone;
	cellZone        cz_solid_29;
	DarcyForchheimerCoeffs
	{
	    d   d [0 -2 0 0 0 0 0] (3e12 0 3e12);
	    f   f [0 -1 0 0 0 0 0] (4e5 0 4e5);
            coordinateSystem
	    {
                type    cartesian;
                origin  (0 0 0);
                coordinateRotation
                {
                    type    axesRotation;
                    e1  (1 0 0);
                    e2  (0 1 0);
                }
            }
        }
    }
}

source30 
{ 
    type	explicitPorositySource;
    explicitPorositySourceCoeffs
    {
	type            DarcyForchheimer;
	selectionMode   cellZone;
	cellZone        cz_solid_30;
	DarcyForchheimerCoeffs
	{
	    d   d [0 -2 0 0 0 0 0] (3e12 0 3e12);
	    f   f [0 -1 0 0 0 0 0] (4e5 0 4e5);
            coordinateSystem
	    {
                type    cartesian;
                origin  (0 0 0);
                coordinateRotation
                {
                    type    axesRotation;
                    e1  (1 0 0);
                    e2  (0 1 0);
                }
            }
        }
    }
}

source31 
{ 
    type	explicitPorositySource;
    explicitPorositySourceCoeffs
    {
	type            DarcyForchheimer;
	selectionMode   cellZone;
	cellZone        cz_solid_31;
	DarcyForchheimerCoeffs
	{
	    d   d [0 -2 0 0 0 0 0] (3e12 0 3e12);
	    f   f [0 -1 0 0 0 0 0] (4e5 0 4e5);
            coordinateSystem
	    {
                type    cartesian;
                origin  (0 0 0);
                coordinateRotation
                {
                    type    axesRotation;
                    e1  (1 0 0);
                    e2  (0 1 0);
                }
            }
        }
    }
}

source32 
{ 
    type	explicitPorositySource;
    explicitPorositySourceCoeffs
    {
	type            DarcyForchheimer;
	selectionMode   cellZone;
	cellZone        cz_solid_32;
	DarcyForchheimerCoeffs
	{
	    d   d [0 -2 0 0 0 0 0] (3e12 0 3e12);
	    f   f [0 -1 0 0 0 0 0] (4e5 0 4e5);
            coordinateSystem
	    {
                type    cartesian;
                origin  (0 0 0);
                coordinateRotation
                {
                    type    axesRotation;
                    e1  (1 0 0);
                    e2  (0 1 0);
                }
            }
        }
    }
}

source33 
{ 
    type	explicitPorositySource;
    explicitPorositySourceCoeffs
    {
	type            DarcyForchheimer;
	selectionMode   cellZone;
	cellZone        cz_solid_33;
	DarcyForchheimerCoeffs
	{
	    d   d [0 -2 0 0 0 0 0] (3e12 0 3e12);
	    f   f [0 -1 0 0 0 0 0] (4e5 0 4e5);
            coordinateSystem
	    {
                type    cartesian;
                origin  (0 0 0);
                coordinateRotation
                {
                    type    axesRotation;
                    e1  (1 0 0);
                    e2  (0 1 0);
                }
            }
        }
    }
}

source34 
{ 
    type	explicitPorositySource;
    explicitPorositySourceCoeffs
    {
	type            DarcyForchheimer;
	selectionMode   cellZone;
	cellZone        cz_solid_34;
	DarcyForchheimerCoeffs
	{
	    d   d [0 -2 0 0 0 0 0] (3e12 0 3e12);
	    f   f [0 -1 0 0 0 0 0] (4e5 0 4e5);
            coordinateSystem
	    {
                type    cartesian;
                origin  (0 0 0);
                coordinateRotation
                {
                    type    axesRotation;
                    e1  (1 0 0);
                    e2  (0 1 0);
                }
            }
        }
    }
}

source35 
{ 
    type	explicitPorositySource;
    explicitPorositySourceCoeffs
    {
	type            DarcyForchheimer;
	selectionMode   cellZone;
	cellZone        cz_solid_35;
	DarcyForchheimerCoeffs
	{
	    d   d [0 -2 0 0 0 0 0] (3e12 0 3e12);
	    f   f [0 -1 0 0 0 0 0] (4e5 0 4e5);
            coordinateSystem
	    {
                type    cartesian;
                origin  (0 0 0);
                coordinateRotation
                {
                    type    axesRotation;
                    e1  (1 0 0);
                    e2  (0 1 0);
                }
            }
        }
    }
}

source36 
{ 
    type	explicitPorositySource;
    explicitPorositySourceCoeffs
    {
	type            DarcyForchheimer;
	selectionMode   cellZone;
	cellZone        cz_solid_36;
	DarcyForchheimerCoeffs
	{
	    d   d [0 -2 0 0 0 0 0] (3e12 0 3e12);
	    f   f [0 -1 0 0 0 0 0] (4e5 0 4e5);
            coordinateSystem
	    {
                type    cartesian;
                origin  (0 0 0);
                coordinateRotation
                {
                    type    axesRotation;
                    e1  (1 0 0);
                    e2  (0 1 0);
                }
            }
        }
    }
}

source37 
{ 
    type	explicitPorositySource;
    explicitPorositySourceCoeffs
    {
	type            DarcyForchheimer;
	selectionMode   cellZone;
	cellZone        cz_solid_37;
	DarcyForchheimerCoeffs
	{
	    d   d [0 -2 0 0 0 0 0] (3e12 0 3e12);
	    f   f [0 -1 0 0 0 0 0] (4e5 0 4e5);
            coordinateSystem
	    {
                type    cartesian;
                origin  (0 0 0);
                coordinateRotation
                {
                    type    axesRotation;
                    e1  (1 0 0);
                    e2  (0 1 0);
                }
            }
        }
    }
}

source38 
{ 
    type	explicitPorositySource;
    explicitPorositySourceCoeffs
    {
	type            DarcyForchheimer;
	selectionMode   cellZone;
	cellZone        cz_solid_38;
	DarcyForchheimerCoeffs
	{
	    d   d [0 -2 0 0 0 0 0] (3e12 0 3e12);
	    f   f [0 -1 0 0 0 0 0] (4e5 0 4e5);
            coordinateSystem
	    {
                type    cartesian;
                origin  (0 0 0);
                coordinateRotation
                {
                    type    axesRotation;
                    e1  (1 0 0);
                    e2  (0 1 0);
                }
            }
        }
    }
}

source39 
{ 
    type	explicitPorositySource;
    explicitPorositySourceCoeffs
    {
	type            DarcyForchheimer;
	selectionMode   cellZone;
	cellZone        cz_solid_39;
	DarcyForchheimerCoeffs
	{
	    d   d [0 -2 0 0 0 0 0] (3e12 0 3e12);
	    f   f [0 -1 0 0 0 0 0] (4e5 0 4e5);
            coordinateSystem
	    {
                type    cartesian;
                origin  (0 0 0);
                coordinateRotation
                {
                    type    axesRotation;
                    e1  (1 0 0);
                    e2  (0 1 0);
                }
            }
        }
    }
}

source40 
{ 
    type	explicitPorositySource;
    explicitPorositySourceCoeffs
    {
	type            DarcyForchheimer;
	selectionMode   cellZone;
	cellZone        cz_solid_40;
	DarcyForchheimerCoeffs
	{
	    d   d [0 -2 0 0 0 0 0] (3e12 0 3e12);
	    f   f [0 -1 0 0 0 0 0] (4e5 0 4e5);
            coordinateSystem
	    {
                type    cartesian;
                origin  (0 0 0);
                coordinateRotation
                {
                    type    axesRotation;
                    e1  (1 0 0);
                    e2  (0 1 0);
                }
            }
        }
    }
}

source41 
{ 
    type	explicitPorositySource;
    explicitPorositySourceCoeffs
    {
	type            DarcyForchheimer;
	selectionMode   cellZone;
	cellZone        cz_solid_41;
	DarcyForchheimerCoeffs
	{
	    d   d [0 -2 0 0 0 0 0] (3e12 0 3e12);
	    f   f [0 -1 0 0 0 0 0] (4e5 0 4e5);
            coordinateSystem
	    {
                type    cartesian;
                origin  (0 0 0);
                coordinateRotation
                {
                    type    axesRotation;
                    e1  (1 0 0);
                    e2  (0 1 0);
                }
            }
        }
    }
}

source42 
{ 
    type	explicitPorositySource;
    explicitPorositySourceCoeffs
    {
	type            DarcyForchheimer;
	selectionMode   cellZone;
	cellZone        cz_solid_42;
	DarcyForchheimerCoeffs
	{
	    d   d [0 -2 0 0 0 0 0] (3e12 0 3e12);
	    f   f [0 -1 0 0 0 0 0] (4e5 0 4e5);
            coordinateSystem
	    {
                type    cartesian;
                origin  (0 0 0);
                coordinateRotation
                {
                    type    axesRotation;
                    e1  (1 0 0);
                    e2  (0 1 0);
                }
            }
        }
    }
}

source43 
{ 
    type	explicitPorositySource;
    explicitPorositySourceCoeffs
    {
	type            DarcyForchheimer;
	selectionMode   cellZone;
	cellZone        cz_solid_43;
	DarcyForchheimerCoeffs
	{
	    d   d [0 -2 0 0 0 0 0] (3e12 0 3e12);
	    f   f [0 -1 0 0 0 0 0] (4e5 0 4e5);
            coordinateSystem
	    {
                type    cartesian;
                origin  (0 0 0);
                coordinateRotation
                {
                    type    axesRotation;
                    e1  (1 0 0);
                    e2  (0 1 0);
                }
            }
        }
    }
}

source44 
{ 
    type	explicitPorositySource;
    explicitPorositySourceCoeffs
    {
	type            DarcyForchheimer;
	selectionMode   cellZone;
	cellZone        cz_solid_44;
	DarcyForchheimerCoeffs
	{
	    d   d [0 -2 0 0 0 0 0] (3e12 0 3e12);
	    f   f [0 -1 0 0 0 0 0] (4e5 0 4e5);
            coordinateSystem
	    {
                type    cartesian;
                origin  (0 0 0);
                coordinateRotation
                {
                    type    axesRotation;
                    e1  (1 0 0);
                    e2  (0 1 0);
                }
            }
        }
    }
}

source45 
{ 
    type	explicitPorositySource;
    explicitPorositySourceCoeffs
    {
	type            DarcyForchheimer;
	selectionMode   cellZone;
	cellZone        cz_solid_45;
	DarcyForchheimerCoeffs
	{
	    d   d [0 -2 0 0 0 0 0] (3e12 0 3e12);
	    f   f [0 -1 0 0 0 0 0] (4e5 0 4e5);
            coordinateSystem
	    {
                type    cartesian;
                origin  (0 0 0);
                coordinateRotation
                {
                    type    axesRotation;
                    e1  (1 0 0);
                    e2  (0 1 0);
                }
            }
        }
    }
}

source46 
{ 
    type	explicitPorositySource;
    explicitPorositySourceCoeffs
    {
	type            DarcyForchheimer;
	selectionMode   cellZone;
	cellZone        cz_solid_46;
	DarcyForchheimerCoeffs
	{
	    d   d [0 -2 0 0 0 0 0] (3e12 0 3e12);
	    f   f [0 -1 0 0 0 0 0] (4e5 0 4e5);
            coordinateSystem
	    {
                type    cartesian;
                origin  (0 0 0);
                coordinateRotation
                {
                    type    axesRotation;
                    e1  (1 0 0);
                    e2  (0 1 0);
                }
            }
        }
    }
}

source47 
{ 
    type	explicitPorositySource;
    explicitPorositySourceCoeffs
    {
	type            DarcyForchheimer;
	selectionMode   cellZone;
	cellZone        cz_solid_47;
	DarcyForchheimerCoeffs
	{
	    d   d [0 -2 0 0 0 0 0] (3e12 0 3e12);
	    f   f [0 -1 0 0 0 0 0] (4e5 0 4e5);
            coordinateSystem
	    {