/*--------------------------------*- C++ -*----------------------------------*\
  =========                 |
  \\      /  F ield         | OpenFOAM: The Open Source CFD Toolbox
   \\    /   O peration     | Website:  https://openfoam.org
    \\  /    A nd           | Version:  7
     \\/     M anipulation  |
\*---------------------------------------------------------------------------*/
FoamFile
{
    version     2.0;
    format      ascii;
    class       dictionary;
    object      createPatchDict;
}

// * * * * * * * * * * * * * * * * * * * * * * * * * * * * * * * * * * * * * //

pointSync false;

// Patches to create.
patches
(
// Patch 1
    {
        // Name of new patch
        name inletPatch;

        // Type of new patch
        patchInfo
        {
            type patch;
        }

        // How to construct: either from 'patches' or 'set'
        constructFrom set;

        // If constructFrom = set : name of faceSet
        set inletPatch;
    }
// Patch 2
    {
        // Name of new patch
        name outletPatch;

        // Type of new patch
        patchInfo
        {
            type patch;
        }

        // How to construct: either from 'patches' or 'set'
        constructFrom set;

        // If constructFrom = set : name of faceSet
        set outletPatch;
    }

// Patch 3
    {
        // Name of new patch
        name wallPatch;

        // Type of new patch
        patchInfo
        {
            type wall;
        }

        // How to construct: either from 'patches' or 'set'
        constructFrom set;

        // If constructFrom = set : name of faceSet
        set wallPatch;
    }


);

// ************************************************************************* //
