/*--------------------------------*- C++ -*----------------------------------*\
  =========                 |
  \\      /  F ield         | OpenFOAM: The Open Source CFD Toolbox
   \\    /   O peration     | Website:  https://openfoam.org
    \\  /    A nd           | Version:  6
     \\/     M anipulation  |
\*---------------------------------------------------------------------------*/
FoamFile
{
    version     2.0;
    format      ascii;
    class       volVectorField;
    location    "0/fluid";
    object      U;
}
// * * * * * * * * * * * * * * * * * * * * * * * * * * * * * * * * * * * * * //

dimensions      [0 1 -1 0 0 0 0];

internalField   uniform (0 0 0);

boundaryField
{
    inletPatch
    {
        type            fixedValue;
        value           uniform (0 0 -12.5);
    }
    outletPatch
    {
        type            zeroGradient;
    }
    wallPatch
    {
        type            noSlip;
    }
    fluid_to_cz_solid_99
    {
        type            calculated;
        value           uniform (0 0 0);
    }
    fluid_to_cz_solid_0
    {
        type            calculated;
        value           uniform (0 0 0);
    }
    fluid_to_cz_solid_10
    {
        type            calculated;
        value           uniform (0 0 0);
    }
    fluid_to_cz_solid_97
    {
        type            calculated;
        value           uniform (0 0 0);
    }
    fluid_to_cz_solid_61
    {
        type            calculated;
        value           uniform (0 0 0);
    }
    fluid_to_cz_solid_98
    {
        type            calculated;
        value           uniform (0 0 0);
    }
    fluid_to_cz_solid_87
    {
        type            calculated;
        value           uniform (0 0 0);
    }
    fluid_to_cz_solid_92
    {
        type            calculated;
        value           uniform (0 0 0);
    }
    fluid_to_cz_solid_83
    {
        type            calculated;
        value           uniform (0 0 0);
    }
    fluid_to_cz_solid_73
    {
        type            calculated;
        value           uniform (0 0 0);
    }
    fluid_to_cz_solid_60
    {
        type            calculated;
        value           uniform (0 0 0);
    }
    fluid_to_cz_solid_55
    {
        type            calculated;
        value           uniform (0 0 0);
    }
    fluid_to_cz_solid_94
    {
        type            calculated;
        value           uniform (0 0 0);
    }
    fluid_to_cz_solid_48
    {
        type            calculated;
        value           uniform (0 0 0);
    }
    fluid_to_cz_solid_30
    {
        type            calculated;
        value           uniform (0 0 0);
    }
    fluid_to_cz_solid_59
    {
        type            calculated;
        value           uniform (0 0 0);
    }
    fluid_to_cz_solid_85
    {
        type            calculated;
        value           uniform (0 0 0);
    }
    fluid_to_cz_solid_23
    {
        type            calculated;
        value           uniform (0 0 0);
    }
    fluid_to_cz_solid_64
    {
        type            calculated;
        value           uniform (0 0 0);
    }
    fluid_to_cz_solid_81
    {
        type            calculated;
        value           uniform (0 0 0);
    }
    fluid_to_cz_solid_46
    {
        type            calculated;
        value           uniform (0 0 0);
    }
    fluid_to_cz_solid_44
    {
        type            calculated;
        value           uniform (0 0 0);
    }
    fluid_to_cz_solid_68
    {
        type            calculated;
        value           uniform (0 0 0);
    }
    fluid_to_cz_solid_8
    {
        type            calculated;
        value           uniform (0 0 0);
    }
    fluid_to_cz_solid_6
    {
        type            calculated;
        value           uniform (0 0 0);
    }
    fluid_to_cz_solid_52
    {
        type            calculated;
        value           uniform (0 0 0);
    }
    fluid_to_cz_solid_4
    {
        type            calculated;
        value           uniform (0 0 0);
    }
    fluid_to_cz_solid_7
    {
        type            calculated;
        value           uniform (0 0 0);
    }
    fluid_to_cz_solid_12
    {
        type            calculated;
        value           uniform (0 0 0);
    }
    fluid_to_cz_solid_39
    {
        type            calculated;
        value           uniform (0 0 0);
    }
    fluid_to_cz_solid_18
    {
        type            calculated;
        value           uniform (0 0 0);
    }
    fluid_to_cz_solid_27
    {
        type            calculated;
        value           uniform (0 0 0);
    }
    fluid_to_cz_solid_58
    {
        type            calculated;
        value           uniform (0 0 0);
    }
    fluid_to_cz_solid_37
    {
        type            calculated;
        value           uniform (0 0 0);
    }
    fluid_to_cz_solid_40
    {
        type            calculated;
        value           uniform (0 0 0);
    }
    fluid_to_cz_solid_49
    {
        type            calculated;
        value           uniform (0 0 0);
    }
    fluid_to_cz_solid_42
    {
        type            calculated;
        value           uniform (0 0 0);
    }
    fluid_to_cz_solid_89
    {
        type            calculated;
        value           uniform (0 0 0);
    }
    fluid_to_cz_solid_47
    {
        type            calculated;
        value           uniform (0 0 0);
    }
    fluid_to_cz_solid_35
    {
        type            calculated;
        value           uniform (0 0 0);
    }
    fluid_to_cz_solid_11
    {
        type            calculated;
        value           uniform (0 0 0);
    }
    fluid_to_cz_solid_80
    {
        type            calculated;
        value           uniform (0 0 0);
    }
    fluid_to_cz_solid_86
    {
        type            calculated;
        value           uniform (0 0 0);
    }
    fluid_to_cz_solid_43
    {
        type            calculated;
        value           uniform (0 0 0);
    }
    fluid_to_cz_solid_45
    {
        type            calculated;
        value           uniform (0 0 0);
    }
    fluid_to_cz_solid_93
    {
        type            calculated;
        value           uniform (0 0 0);
    }
    fluid_to_cz_solid_13
    {
        type            calculated;
        value           uniform (0 0 0);
    }
    fluid_to_cz_solid_79
    {
        type            calculated;
        value           uniform (0 0 0);
    }
    fluid_to_cz_solid_91
    {
        type            calculated;
        value           uniform (0 0 0);
    }
    fluid_to_cz_solid_22
    {
        type            calculated;
        value           uniform (0 0 0);
    }
    fluid_to_cz_solid_54
    {
        type            calculated;
        value           uniform (0 0 0);
    }
    fluid_to_cz_solid_50
    {
        type            calculated;
        value           uniform (0 0 0);
    }
    fluid_to_cz_solid_74
    {
        type            calculated;
        value           uniform (0 0 0);
    }
    fluid_to_cz_solid_1
    {
        type            calculated;
        value           uniform (0 0 0);
    }
    fluid_to_cz_solid_63
    {
        type            calculated;
        value           uniform (0 0 0);
    }
    fluid_to_cz_solid_25
    {
        type            calculated;
        value           uniform (0 0 0);
    }
    fluid_to_cz_solid_19
    {
        type            calculated;
        value           uniform (0 0 0);
    }
    fluid_to_cz_solid_62
    {
        type            calculated;
        value           uniform (0 0 0);
    }
    fluid_to_cz_solid_16
    {
        type            calculated;
        value           uniform (0 0 0);
    }
    fluid_to_cz_solid_41
    {
        type            calculated;
        value           uniform (0 0 0);
    }
    fluid_to_cz_solid_21
    {
        type            calculated;
        value           uniform (0 0 0);
    }
    fluid_to_cz_solid_78
    {
        type            calculated;
        value           uniform (0 0 0);
    }
    fluid_to_cz_solid_90
    {
        type            calculated;
        value           uniform (0 0 0);
    }
    fluid_to_cz_solid_5
    {
        type            calculated;
        value           uniform (0 0 0);
    }
    fluid_to_cz_solid_28
    {
        type            calculated;
        value           uniform (0 0 0);
    }
    fluid_to_cz_solid_38
    {
        type            calculated;
        value           uniform (0 0 0);
    }
    fluid_to_cz_solid_53
    {
        type            calculated;
        value           uniform (0 0 0);
    }
    fluid_to_cz_solid_31
    {
        type            calculated;
        value           uniform (0 0 0);
    }
    fluid_to_cz_solid_24
    {
        type            calculated;
        value           uniform (0 0 0);
    }
    fluid_to_cz_solid_71
    {
        type            calculated;
        value           uniform (0 0 0);
    }
    fluid_to_cz_solid_57
    {
        type            calculated;
        value           uniform (0 0 0);
    }
    fluid_to_cz_solid_66
    {
        type            calculated;
        value           uniform (0 0 0);
    }
    fluid_to_cz_solid_29
    {
        type            calculated;
        value           uniform (0 0 0);
    }
    fluid_to_cz_solid_9
    {
        type            calculated;
        value           uniform (0 0 0);
    }
    fluid_to_cz_solid_32
    {
        type            calculated;
        value           uniform (0 0 0);
    }
    fluid_to_cz_solid_72
    {
        type            calculated;
        value           uniform (0 0 0);
    }
    fluid_to_cz_solid_17
    {
        type            calculated;
        value           uniform (0 0 0);
    }
    fluid_to_cz_solid_3
    {
        type            calculated;
        value           uniform (0 0 0);
    }
    fluid_to_cz_solid_15
    {
        type            calculated;
        value           uniform (0 0 0);
    }
    fluid_to_cz_solid_20
    {
        type            calculated;
        value           uniform (0 0 0);
    }
    fluid_to_cz_solid_26
    {
        type            calculated;
        value           uniform (0 0 0);
    }
    fluid_to_cz_solid_14
    {
        type            calculated;
        value           uniform (0 0 0);
    }
    fluid_to_cz_solid_76
    {
        type            calculated;
        value           uniform (0 0 0);
    }
    fluid_to_cz_solid_56
    {
        type            calculated;
        value           uniform (0 0 0);
    }
    fluid_to_cz_solid_96
    {
        type            calculated;
        value           uniform (0 0 0);
    }
    fluid_to_cz_solid_33
    {
        type            calculated;
        value           uniform (0 0 0);
    }
    fluid_to_cz_solid_2
    {
        type            calculated;
        value           uniform (0 0 0);
    }
    fluid_to_cz_solid_88
    {
        type            calculated;
        value           uniform (0 0 0);
    }
    fluid_to_cz_solid_34
    {
        type            calculated;
        value           uniform (0 0 0);
    }
    fluid_to_cz_solid_51
    {
        type            calculated;
        value           uniform (0 0 0);
    }
    fluid_to_cz_solid_69
    {
        type            calculated;
        value           uniform (0 0 0);
    }
    fluid_to_cz_solid_82
    {
        type            calculated;
        value           uniform (0 0 0);
    }
    fluid_to_cz_solid_70
    {
        type            calculated;
        value           uniform (0 0 0);
    }
    fluid_to_cz_solid_77
    {
        type            calculated;
        value           uniform (0 0 0);
    }
    fluid_to_cz_solid_95
    {
        type            calculated;
        value           uniform (0 0 0);
    }
    fluid_to_cz_solid_65
    {
        type            calculated;
        value           uniform (0 0 0);
    }
    fluid_to_cz_solid_67
    {
        type            calculated;
        value           uniform (0 0 0);
    }
    fluid_to_cz_solid_36
    {
        type            calculated;
        value           uniform (0 0 0);
    }
    fluid_to_cz_solid_75
    {
        type            calculated;
        value           uniform (0 0 0);
    }
    fluid_to_cz_solid_84
    {
        type            calculated;
        value           uniform (0 0 0);
    }
}


// ************************************************************************* //
